* PSpice Model Editor - Version 16.3.0
*$
*BeginSpec
*JV: Ic/Ib=10
*OA: Vce=1
*FB: Vce=1
*VV: Ic/Ib=10
*CB:
*EB:
*ST: Ic/Ib=10
*GB: Vce=10
*EndSpec

*BeginTrace
*JV: 0,1,100.00E-6,.1,1,3,0,0,-1 (27)
*OA: 1,1,100.00E-6,.1,1,3,0,0,-1 (27)
*FB: 0,1,100.00E-6,.1,1,3,0,0,-1 (27)
*VV: 0,1,100.00E-6,.1,1,3,0,0,-1 (27)
*CB: 0,1,.1,50,1,3,0,0,-1 (27)
*EB: 0,1,.1,10,1,3,0,0,-1 (27)
*ST: 0,1,100.00E-6,.1,1,3,0,0,-1 (27)
*GB: 0,1,100.00E-6,.1,1,3,0,0,-1 (27)
*EndTrace

*BeginParam
*IS=6.7340E-15 (10.000E-21,1.0000E-6,0)
*BF=100 (1,1.5000E3,0)
*NF=1 (.8,1.2000,0)
*VAF=74.030 (0,1.0000E3,0)
*IKF=66.780E-3 (10.000E-3,20,0)
*ISE=6.7340E-15 (0,1,0)
*NE=1.2590 (1,2,0)
*BR=.7371 (.1,500,0)
*NR=1 (.1,5,0)
*VAR=100 (0,1.0000E3,0)
*IKR=0 (10.000E-3,20,0)
*ISC=0 (0,1,0)
*NC=2 (1,3,0)
*NK=.5 (.1,5,0)
*RE=0 (0,100.00E3,0)
*RB=10 (0,100,0)
*RC=1 (0,100.00E3,0)
*CJE=4.4930E-12 (0,1,0)
*VJE=.75 (.35,1.5000,0)
*MJE=.2593 (.1,1,0)
*CJC=3.6380E-12 (0,1,0)
*VJC=.75 (.35,1.5000,0)
*MJC=.3085 (.1,1,0)
*FC=.5 (.1,1.5000,0)
*TF=301.20E-12 (0,1,0)
*XTF=2 (0,100.00E3,0)
*VTF=4 (0,100.00E3,0)
*ITF=.4 (0,100.00E3,0)
*PTF=0 (0,360,0)
*TR=239.50E-9 (0,1,0)
*EG=1.1100 (.69,5,0)
*XTB=1.5000 (0,100.00E3,0)
*XTI=3 (.1,100.00E3,0)
*EndParam

*DEVICE=Q2N3904,NPN

* Q2N3904 NPN model
* updated using Model Editor release 16.3.0 on 03/22/15 at 15:28
* The Model Editor is a PSpice product.
.MODEL Q2N3904 NPN
+ IS=6.7340E-15
+ VAF=74.030
+ IKF=66.780E-3
+ ISE=6.7340E-15
+ NE=1.2590
+ BR=.7371
+ VAR=100
+ RB=10
+ RC=1
+ CJE=4.4930E-12
+ MJE=.2593
+ CJC=3.6380E-12
+ MJC=.3085
+ TF=301.20E-12
+ XTF=2
+ VTF=4
+ ITF=.4
+ TR=239.50E-9
+ XTB=1.5000
*$
